
OS:Version,
  {722969ce-1633-4697-b4bf-b022915877b1}, !- Handle
  1.6.0;                                  !- Version Identifier

OS:SimulationControl,
  {add301bb-1b60-43a5-8db1-f00bf05f4d96}, !- Handle
  Yes,                                    !- Do Zone Sizing Calculation
  Yes,                                    !- Do System Sizing Calculation
  ,                                       !- Do Plant Sizing Calculation
  No,                                     !- Run Simulation for Sizing Periods
  Yes;                                    !- Run Simulation for Weather File Run Periods

OS:Timestep,
  {504e7a63-dd66-4822-999a-c3e8ed191c07}, !- Handle
  6;                                      !- Number of Timesteps per Hour

OS:RunPeriod,
  {9b9e95c3-acba-4042-bf3f-f008d4172ace}, !- Handle
  Run Period 1,                           !- Name
  1,                                      !- Begin Month
  1,                                      !- Begin Day of Month
  12,                                     !- End Month
  31,                                     !- End Day of Month
  No,                                     !- Use Weather File Holidays and Special Days
  No,                                     !- Use Weather File Daylight Saving Period
  No,                                     !- Apply Weekend Holiday Rule
  Yes,                                    !- Use Weather File Rain Indicators
  Yes,                                    !- Use Weather File Snow Indicators
  1;                                      !- Number of Times Runperiod to be Repeated

OS:SurfaceConvectionAlgorithm:Inside,
  {3d9c7b88-87b7-43d6-a5d6-58807b4b00e7}, !- Handle
  TARP;                                   !- Algorithm

OS:SurfaceConvectionAlgorithm:Outside,
  {7cde1b48-5793-4566-9498-7f22d97d63e3}, !- Handle
  DOE-2;                                  !- Algorithm

OS:HeatBalanceAlgorithm,
  {c86addca-fbf5-4103-a864-d5b80f4a24c8}, !- Handle
  ConductionTransferFunction,             !- Algorithm
  200;                                    !- Surface Temperature Upper Limit {F}

OS:ZoneAirHeatBalanceAlgorithm,
  {d58cebe1-c442-494b-82ef-590b564f0496}, !- Handle
  AnalyticalSolution;                     !- Algorithm

OS:ConvergenceLimits,
  {624de206-389b-4f91-a875-58c2468be651}; !- Handle

OS:ShadowCalculation,
  {94313118-2310-4a72-bfa5-981e925a312a}, !- Handle
  7,                                      !- Calculation Frequency
  15000;                                  !- Maximum Figures in Shadow Overlap Calculations

OS:Site,
  {1bee842c-9210-4cf8-b157-7171e4742185}, !- Handle
  Site 1,                                 !- Name
  39.74,                                  !- Latitude {deg}
  -105.18,                                !- Longitude {deg}
  -7,                                     !- Time Zone {hr}
  1829,                                   !- Elevation {m}
  ;                                       !- Terrain

OS:Site:GroundTemperature:BuildingSurface,
  {1efe898b-d754-486b-b366-4108500b2de2}, !- Handle
  19.527,                                 !- January Ground Temperature {C}
  19.502,                                 !- February Ground Temperature {C}
  19.536,                                 !- March Ground Temperature {C}
  19.598,                                 !- April Ground Temperature {C}
  20.002,                                 !- May Ground Temperature {C}
  21.64,                                  !- June Ground Temperature {C}
  22.225,                                 !- July Ground Temperature {C}
  22.375,                                 !- August Ground Temperature {C}
  21.449,                                 !- September Ground Temperature {C}
  20.121,                                 !- October Ground Temperature {C}
  19.802,                                 !- November Ground Temperature {C}
  19.633;                                 !- December Ground Temperature {C}

OS:Site:WaterMainsTemperature,
  {b8ee9ac8-8f76-466e-b7ef-090b2ea7486f}, !- Handle
  Correlation,                            !- Calculation Method
  ,                                       !- Temperature Schedule Name
  9.69,                                   !- Annual Average Outdoor Air Temperature {C}
  28.1;                                   !- Maximum Difference In Monthly Average Outdoor Air Temperatures {deltaC}

OS:ScheduleTypeLimits,
  {2bccf61f-9fe1-4f4d-9c24-65d0f2b35ddf}, !- Handle
  Temperature,                            !- Name
  -60,                                    !- Lower Limit Value {BasedOnField A4}
  200,                                    !- Upper Limit Value {BasedOnField A4}
  CONTINUOUS,                             !- Numeric Type
  Temperature;                            !- Unit Type

OS:DefaultScheduleSet,
  {c3d850a5-f595-4b70-9839-80a335d67b76}, !- Handle
  Default Schedules,                      !- Name
  ,                                       !- Hours of Operation Schedule Name
  {9e354a6a-8641-404e-8c53-5db62a09acc7}, !- Number of People Schedule Name
  {c4830c49-957c-485b-a6e8-3e6af3653a5c}, !- People Activity Level Schedule Name
  {230899e9-d08d-4ee6-a482-8195fdfcddb6}, !- Lighting Schedule Name
  {d081c98d-c717-4537-ab3b-8ad2337d4c44}, !- Electric Equipment Schedule Name
  {2ef03689-a6c6-4701-b45a-c80a208ca636}, !- Gas Equipment Schedule Name
  {4a930034-4611-4bc5-b8df-899a4503ff31}, !- Hot Water Equipment Schedule Name
  {3c613cc2-4c55-4121-afc4-3b65962e3446}, !- Infiltration Schedule Name
  ,                                       !- Steam Equipment Schedule Name
  ;                                       !- Other Equipment Schedule Name

OS:Schedule:Ruleset,
  {9e354a6a-8641-404e-8c53-5db62a09acc7}, !- Handle
  Medium Office Number of People Schedule, !- Name
  {e5e8b8a2-c57b-4a21-995c-5114521b5ae0}, !- Schedule Type Limits Name
  {5d426484-e2d2-46a7-b324-04d3f86d1c04}, !- Default Day Schedule Name
  {7519af28-09d4-4092-bb94-c5c598d17e4a}; !- Summer Design Day Schedule Name

OS:Schedule:Day,
  {5d426484-e2d2-46a7-b324-04d3f86d1c04}, !- Handle
  Medium Office Number of People All Other Days Schedule, !- Name
  {e5e8b8a2-c57b-4a21-995c-5114521b5ae0}, !- Schedule Type Limits Name
  ,                                       !- Interpolate to Timestep
  24,                                     !- Hour 1
  0,                                      !- Minute 1
  0;                                      !- Value Until Time 1

OS:Schedule:Day,
  {a03e0bd4-52a7-4a2b-94cb-10276a0f60bf}, !- Handle
  Medium Office Number of People Summer Design Day Schedule, !- Name
  ,                                       !- Schedule Type Limits Name
  ,                                       !- Interpolate to Timestep
  6,                                      !- Hour 1
  0,                                      !- Minute 1
  0,                                      !- Value Until Time 1
  22,                                     !- Hour 2
  0,                                      !- Minute 2
  1,                                      !- Value Until Time 2
  24,                                     !- Hour 3
  0,                                      !- Minute 3
  0.05;                                   !- Value Until Time 3

OS:Schedule:Day,
  {7519af28-09d4-4092-bb94-c5c598d17e4a}, !- Handle
  Medium Office Number of People Summer Design Day Schedule 1, !- Name
  {e5e8b8a2-c57b-4a21-995c-5114521b5ae0}, !- Schedule Type Limits Name
  ,                                       !- Interpolate to Timestep
  6,                                      !- Hour 1
  0,                                      !- Minute 1
  0,                                      !- Value Until Time 1
  22,                                     !- Hour 2
  0,                                      !- Minute 2
  1,                                      !- Value Until Time 2
  24,                                     !- Hour 3
  0,                                      !- Minute 3
  0.05;                                   !- Value Until Time 3

OS:Schedule:Rule,
  {6bc65593-8f04-47d0-9e0d-aef520b57abc}, !- Handle
  Medium Office Number of People Schedule Weekdays Rule, !- Name
  {9e354a6a-8641-404e-8c53-5db62a09acc7}, !- Schedule Ruleset Name
  1,                                      !- Rule Order
  {8ee81225-0f32-4ade-969a-0993405297df}, !- Day Schedule Name
  ,                                       !- Apply Sunday
  Yes,                                    !- Apply Monday
  Yes,                                    !- Apply Tuesday
  Yes,                                    !- Apply Wednesday
  Yes,                                    !- Apply Thursday
  Yes;                                    !- Apply Friday

OS:Schedule:Day,
  {8ee81225-0f32-4ade-969a-0993405297df}, !- Handle
  Medium Office Number of People Weekdays Schedule, !- Name
  {e5e8b8a2-c57b-4a21-995c-5114521b5ae0}, !- Schedule Type Limits Name
  ,                                       !- Interpolate to Timestep
  6,                                      !- Hour 1
  0,                                      !- Minute 1
  0,                                      !- Value Until Time 1
  7,                                      !- Hour 2
  0,                                      !- Minute 2
  0.1,                                    !- Value Until Time 2
  8,                                      !- Hour 3
  0,                                      !- Minute 3
  0.2,                                    !- Value Until Time 3
  12,                                     !- Hour 4
  0,                                      !- Minute 4
  0.95,                                   !- Value Until Time 4
  13,                                     !- Hour 5
  0,                                      !- Minute 5
  0.5,                                    !- Value Until Time 5
  17,                                     !- Hour 6
  0,                                      !- Minute 6
  0.95,                                   !- Value Until Time 6
  18,                                     !- Hour 7
  0,                                      !- Minute 7
  0.7,                                    !- Value Until Time 7
  20,                                     !- Hour 8
  0,                                      !- Minute 8
  0.4,                                    !- Value Until Time 8
  22,                                     !- Hour 9
  0,                                      !- Minute 9
  0.1,                                    !- Value Until Time 9
  24,                                     !- Hour 10
  0,                                      !- Minute 10
  0.05;                                   !- Value Until Time 10

OS:Schedule:Rule,
  {ed79063b-503d-4788-9f12-a61f30a71ec4}, !- Handle
  Medium Office Number of People Schedule Saturday Rule, !- Name
  {9e354a6a-8641-404e-8c53-5db62a09acc7}, !- Schedule Ruleset Name
  0,                                      !- Rule Order
  {af0f6b4c-ff7c-4358-a15d-caafe2b3ff2a}, !- Day Schedule Name
  ,                                       !- Apply Sunday
  ,                                       !- Apply Monday
  ,                                       !- Apply Tuesday
  ,                                       !- Apply Wednesday
  ,                                       !- Apply Thursday
  ,                                       !- Apply Friday
  Yes;                                    !- Apply Saturday

OS:Schedule:Day,
  {af0f6b4c-ff7c-4358-a15d-caafe2b3ff2a}, !- Handle
  Medium Office Number of People Saturday Schedule, !- Name
  {e5e8b8a2-c57b-4a21-995c-5114521b5ae0}, !- Schedule Type Limits Name
  ,                                       !- Interpolate to Timestep
  6,                                      !- Hour 1
  0,                                      !- Minute 1
  0,                                      !- Value Until Time 1
  8,                                      !- Hour 2
  0,                                      !- Minute 2
  0.1,                                    !- Value Until Time 2
  14,                                     !- Hour 3
  0,                                      !- Minute 3
  0.5,                                    !- Value Until Time 3
  17,                                     !- Hour 4
  0,                                      !- Minute 4
  0.1,                                    !- Value Until Time 4
  24,                                     !- Hour 5
  0,                                      !- Minute 5
  0;                                      !- Value Until Time 5

OS:ScheduleTypeLimits,
  {e5e8b8a2-c57b-4a21-995c-5114521b5ae0}, !- Handle
  Fractional,                             !- Name
  0,                                      !- Lower Limit Value {BasedOnField A4}
  1,                                      !- Upper Limit Value {BasedOnField A4}
  Continuous;                             !- Numeric Type

OS:Schedule:Ruleset,
  {c4830c49-957c-485b-a6e8-3e6af3653a5c}, !- Handle
  Medium Office People Activity Level Schedule, !- Name
  {1bbc778e-82ee-4fb1-8e87-fc1b98afa2bd}, !- Schedule Type Limits Name
  {7245898e-246b-4a28-8212-19bb4513cd57}; !- Default Day Schedule Name

OS:Schedule:Day,
  {7245898e-246b-4a28-8212-19bb4513cd57}, !- Handle
  Medium Office People Activity Level All Days Schedule, !- Name
  {1bbc778e-82ee-4fb1-8e87-fc1b98afa2bd}, !- Schedule Type Limits Name
  ,                                       !- Interpolate to Timestep
  24,                                     !- Hour 1
  0,                                      !- Minute 1
  120;                                    !- Value Until Time 1

OS:ScheduleTypeLimits,
  {1bbc778e-82ee-4fb1-8e87-fc1b98afa2bd}, !- Handle
  ActivityLevel,                          !- Name
  0,                                      !- Lower Limit Value {BasedOnField A4}
  ,                                       !- Upper Limit Value {BasedOnField A4}
  Continuous,                             !- Numeric Type
  ActivityLevel;                          !- Unit Type

OS:Schedule:Ruleset,
  {230899e9-d08d-4ee6-a482-8195fdfcddb6}, !- Handle
  Medium Office Lighting Schedule,        !- Name
  {e5e8b8a2-c57b-4a21-995c-5114521b5ae0}, !- Schedule Type Limits Name
  {66401320-23fd-4c94-83dc-5941c926b4c5}, !- Default Day Schedule Name
  {eb725c59-2a78-48df-8abd-f2091d5e09e8}, !- Summer Design Day Schedule Name
  {14aef38a-f1fc-4f41-9c46-af73f575b829}; !- Winter Design Day Schedule Name

OS:Schedule:Day,
  {66401320-23fd-4c94-83dc-5941c926b4c5}, !- Handle
  Medium Office Lighting All Other Days Schedule, !- Name
  {e5e8b8a2-c57b-4a21-995c-5114521b5ae0}, !- Schedule Type Limits Name
  ,                                       !- Interpolate to Timestep
  24,                                     !- Hour 1
  0,                                      !- Minute 1
  0.05;                                   !- Value Until Time 1

OS:Schedule:Day,
  {0c76520e-6634-433d-bbe3-45e47f1e2f52}, !- Handle
  Medium Office Lighting Summer Design Day Schedule, !- Name
  ,                                       !- Schedule Type Limits Name
  ,                                       !- Interpolate to Timestep
  6,                                      !- Hour 1
  0,                                      !- Minute 1
  1,                                      !- Value Until Time 1
  24,                                     !- Hour 2
  0,                                      !- Minute 2
  0;                                      !- Value Until Time 2

OS:Schedule:Day,
  {eb725c59-2a78-48df-8abd-f2091d5e09e8}, !- Handle
  Medium Office Lighting Summer Design Day Schedule 1, !- Name
  {e5e8b8a2-c57b-4a21-995c-5114521b5ae0}, !- Schedule Type Limits Name
  ,                                       !- Interpolate to Timestep
  6,                                      !- Hour 1
  0,                                      !- Minute 1
  1,                                      !- Value Until Time 1
  24,                                     !- Hour 2
  0,                                      !- Minute 2
  0;                                      !- Value Until Time 2

OS:Schedule:Day,
  {dec8b7ba-83ff-45c7-a0d0-1e3b273c64e4}, !- Handle
  Medium Office Lighting Winter Design Day Schedule, !- Name
  ,                                       !- Schedule Type Limits Name
  ,                                       !- Interpolate to Timestep
  24,                                     !- Hour 1
  0,                                      !- Minute 1
  0;                                      !- Value Until Time 1

OS:Schedule:Day,
  {14aef38a-f1fc-4f41-9c46-af73f575b829}, !- Handle
  Medium Office Lighting Winter Design Day Schedule 1, !- Name
  {e5e8b8a2-c57b-4a21-995c-5114521b5ae0}, !- Schedule Type Limits Name
  ,                                       !- Interpolate to Timestep
  24,                                     !- Hour 1
  0,                                      !- Minute 1
  0;                                      !- Value Until Time 1

OS:Schedule:Rule,
  {b97c96ce-fbf9-4c8f-93a3-b31c0472aaa4}, !- Handle
  Medium Office Lighting Schedule Weekdays Rule, !- Name
  {230899e9-d08d-4ee6-a482-8195fdfcddb6}, !- Schedule Ruleset Name
  1,                                      !- Rule Order
  {fabdeff7-27db-44f4-bf28-0088c8f2321c}, !- Day Schedule Name
  ,                                       !- Apply Sunday
  Yes,                                    !- Apply Monday
  Yes,                                    !- Apply Tuesday
  Yes,                                    !- Apply Wednesday
  Yes,                                    !- Apply Thursday
  Yes;                                    !- Apply Friday

OS:Schedule:Day,
  {fabdeff7-27db-44f4-bf28-0088c8f2321c}, !- Handle
  Medium Office Lighting Weekdays Schedule, !- Name
  {e5e8b8a2-c57b-4a21-995c-5114521b5ae0}, !- Schedule Type Limits Name
  ,                                       !- Interpolate to Timestep
  5,                                      !- Hour 1
  0,                                      !- Minute 1
  0.05,                                   !- Value Until Time 1
  7,                                      !- Hour 2
  0,                                      !- Minute 2
  0.1,                                    !- Value Until Time 2
  8,                                      !- Hour 3
  0,                                      !- Minute 3
  0.3,                                    !- Value Until Time 3
  17,                                     !- Hour 4
  0,                                      !- Minute 4
  0.9,                                    !- Value Until Time 4
  18,                                     !- Hour 5
  0,                                      !- Minute 5
  0.7,                                    !- Value Until Time 5
  20,                                     !- Hour 6
  0,                                      !- Minute 6
  0.5,                                    !- Value Until Time 6
  22,                                     !- Hour 7
  0,                                      !- Minute 7
  0.3,                                    !- Value Until Time 7
  23,                                     !- Hour 8
  0,                                      !- Minute 8
  0.1,                                    !- Value Until Time 8
  24,                                     !- Hour 9
  0,                                      !- Minute 9
  0.05;                                   !- Value Until Time 9

OS:Schedule:Rule,
  {7a8585e5-b697-4b99-bfcb-e51692a30c35}, !- Handle
  Medium Office Lighting Schedule Saturday Rule, !- Name
  {230899e9-d08d-4ee6-a482-8195fdfcddb6}, !- Schedule Ruleset Name
  0,                                      !- Rule Order
  {a9b8ecfa-6624-4e9f-91fb-a7caa8d3c7af}, !- Day Schedule Name
  ,                                       !- Apply Sunday
  ,                                       !- Apply Monday
  ,                                       !- Apply Tuesday
  ,                                       !- Apply Wednesday
  ,                                       !- Apply Thursday
  ,                                       !- Apply Friday
  Yes;                                    !- Apply Saturday

OS:Schedule:Day,
  {a9b8ecfa-6624-4e9f-91fb-a7caa8d3c7af}, !- Handle
  Medium Office Lighting Saturday Schedule, !- Name
  {e5e8b8a2-c57b-4a21-995c-5114521b5ae0}, !- Schedule Type Limits Name
  ,                                       !- Interpolate to Timestep
  6,                                      !- Hour 1
  0,                                      !- Minute 1
  0.05,                                   !- Value Until Time 1
  8,                                      !- Hour 2
  0,                                      !- Minute 2
  0.1,                                    !- Value Until Time 2
  14,                                     !- Hour 3
  0,                                      !- Minute 3
  0.5,                                    !- Value Until Time 3
  17,                                     !- Hour 4
  0,                                      !- Minute 4
  0.15,                                   !- Value Until Time 4
  24,                                     !- Hour 5
  0,                                      !- Minute 5
  0.05;                                   !- Value Until Time 5

OS:Schedule:Ruleset,
  {d081c98d-c717-4537-ab3b-8ad2337d4c44}, !- Handle
  Medium Office Electric Equipment Schedule, !- Name
  {e5e8b8a2-c57b-4a21-995c-5114521b5ae0}, !- Schedule Type Limits Name
  {094b3a6e-d02f-4940-8548-a83e426203d9}, !- Default Day Schedule Name
  {4ab82a0a-ee9c-4462-82dc-54d317ecad29}, !- Summer Design Day Schedule Name
  {639fb3e3-2db2-4834-a197-85d2d00ca117}; !- Winter Design Day Schedule Name

OS:Schedule:Day,
  {094b3a6e-d02f-4940-8548-a83e426203d9}, !- Handle
  Medium Office Electric Equipment All Other Days Schedule, !- Name
  {e5e8b8a2-c57b-4a21-995c-5114521b5ae0}, !- Schedule Type Limits Name
  ,                                       !- Interpolate to Timestep
  24,                                     !- Hour 1
  0,                                      !- Minute 1
  0.3;                                    !- Value Until Time 1

OS:Schedule:Day,
  {b0e69bc5-9402-43b0-a4dc-f917bd06a7b3}, !- Handle
  Medium Office Electric Equipment Summer Design Day Schedule, !- Name
  ,                                       !- Schedule Type Limits Name
  ,                                       !- Interpolate to Timestep
  6,                                      !- Hour 1
  0,                                      !- Minute 1
  1,                                      !- Value Until Time 1
  24,                                     !- Hour 2
  0,                                      !- Minute 2
  0;                                      !- Value Until Time 2

OS:Schedule:Day,
  {4ab82a0a-ee9c-4462-82dc-54d317ecad29}, !- Handle
  Medium Office Electric Equipment Summer Design Day Schedule 1, !- Name
  {e5e8b8a2-c57b-4a21-995c-5114521b5ae0}, !- Schedule Type Limits Name
  ,                                       !- Interpolate to Timestep
  6,                                      !- Hour 1
  0,                                      !- Minute 1
  1,                                      !- Value Until Time 1
  24,                                     !- Hour 2
  0,                                      !- Minute 2
  0;                                      !- Value Until Time 2

OS:Schedule:Day,
  {55ae0739-e005-451a-96d5-0cc2004a87e5}, !- Handle
  Medium Office Electric Equipment Winter Design Day Schedule, !- Name
  ,                                       !- Schedule Type Limits Name
  ,                                       !- Interpolate to Timestep
  24,                                     !- Hour 1
  0,                                      !- Minute 1
  0;                                      !- Value Until Time 1

OS:Schedule:Day,
  {639fb3e3-2db2-4834-a197-85d2d00ca117}, !- Handle
  Medium Office Electric Equipment Winter Design Day Schedule 1, !- Name
  {e5e8b8a2-c57b-4a21-995c-5114521b5ae0}, !- Schedule Type Limits Name
  ,                                       !- Interpolate to Timestep
  24,                                     !- Hour 1
  0,                                      !- Minute 1
  0;                                      !- Value Until Time 1

OS:Schedule:Rule,
  {358871f2-be15-4586-8e86-538be82edd31}, !- Handle
  Medium Office Electric Equipment Schedule Weekdays Rule, !- Name
  {d081c98d-c717-4537-ab3b-8ad2337d4c44}, !- Schedule Ruleset Name
  1,                                      !- Rule Order
  {cb100ebc-380e-46ce-ba5d-28ef087c9730}, !- Day Schedule Name
  ,                                       !- Apply Sunday
  Yes,                                    !- Apply Monday
  Yes,                                    !- Apply Tuesday
  Yes,                                    !- Apply Wednesday
  Yes,                                    !- Apply Thursday
  Yes;                                    !- Apply Friday

OS:Schedule:Day,
  {cb100ebc-380e-46ce-ba5d-28ef087c9730}, !- Handle
  Medium Office Electric Equipment Weekdays Schedule, !- Name
  {e5e8b8a2-c57b-4a21-995c-5114521b5ae0}, !- Schedule Type Limits Name
  ,                                       !- Interpolate to Timestep
  8,                                      !- Hour 1
  0,                                      !- Minute 1
  0.4,                                    !- Value Until Time 1
  12,                                     !- Hour 2
  0,                                      !- Minute 2
  0.9,                                    !- Value Until Time 2
  13,                                     !- Hour 3
  0,                                      !- Minute 3
  0.8,                                    !- Value Until Time 3
  17,                                     !- Hour 4
  0,                                      !- Minute 4
  0.9,                                    !- Value Until Time 4
  18,                                     !- Hour 5
  0,                                      !- Minute 5
  0.8,                                    !- Value Until Time 5
  20,                                     !- Hour 6
  0,                                      !- Minute 6
  0.6,                                    !- Value Until Time 6
  22,                                     !- Hour 7
  0,                                      !- Minute 7
  0.5,                                    !- Value Until Time 7
  24,                                     !- Hour 8
  0,                                      !- Minute 8
  0.4;                                    !- Value Until Time 8

OS:Schedule:Rule,
  {9baef15f-1bf0-4063-9c14-2711744e07f6}, !- Handle
  Medium Office Electric Equipment Schedule Saturday Rule, !- Name
  {d081c98d-c717-4537-ab3b-8ad2337d4c44}, !- Schedule Ruleset Name
  0,                                      !- Rule Order
  {33dd87f0-650e-40c9-b44b-234f93aaaf91}, !- Day Schedule Name
  ,                                       !- Apply Sunday
  ,                                       !- Apply Monday
  ,                                       !- Apply Tuesday
  ,                                       !- Apply Wednesday
  ,                                       !- Apply Thursday
  ,                                       !- Apply Friday
  Yes;                                    !- Apply Saturday

OS:Schedule:Day,
  {33dd87f0-650e-40c9-b44b-234f93aaaf91}, !- Handle
  Medium Office Electric Equipment Saturday Schedule, !- Name
  {e5e8b8a2-c57b-4a21-995c-5114521b5ae0}, !- Schedule Type Limits Name
  ,                                       !- Interpolate to Timestep
  6,                                      !- Hour 1
  0,                                      !- Minute 1
  0.3,                                    !- Value Until Time 1
  8,                                      !- Hour 2
  0,                                      !- Minute 2
  0.4,                                    !- Value Until Time 2
  14,                                     !- Hour 3
  0,                                      !- Minute 3
  0.5,                                    !- Value Until Time 3
  17,                                     !- Hour 4
  0,                                      !- Minute 4
  0.35,                                   !- Value Until Time 4
  24,                                     !- Hour 5
  0,                                      !- Minute 5
  0.3;                                    !- Value Until Time 5

OS:Schedule:Ruleset,
  {2ef03689-a6c6-4701-b45a-c80a208ca636}, !- Handle
  Medium Office Gas Equipment Schedule,   !- Name
  {e5e8b8a2-c57b-4a21-995c-5114521b5ae0}, !- Schedule Type Limits Name
  {fa790c1a-14e1-4502-9c94-1bef021b00ea}, !- Default Day Schedule Name
  {48fc5eec-1d7d-40e8-91bc-760804c10dde}, !- Summer Design Day Schedule Name
  {dae48b70-b7a4-44f9-9a39-4eea4ff1fbd9}; !- Winter Design Day Schedule Name

OS:Schedule:Day,
  {fa790c1a-14e1-4502-9c94-1bef021b00ea}, !- Handle
  Medium Office Gas Equipment All Other Days Schedule, !- Name
  {e5e8b8a2-c57b-4a21-995c-5114521b5ae0}, !- Schedule Type Limits Name
  ,                                       !- Interpolate to Timestep
  24,                                     !- Hour 1
  0,                                      !- Minute 1
  0.3;                                    !- Value Until Time 1

OS:Schedule:Day,
  {8b9be282-5942-48d3-877e-56bd21765704}, !- Handle
  Medium Office Gas Equipment Summer Design Day Schedule, !- Name
  ,                                       !- Schedule Type Limits Name
  ,                                       !- Interpolate to Timestep
  6,                                      !- Hour 1
  0,                                      !- Minute 1
  1,                                      !- Value Until Time 1
  24,                                     !- Hour 2
  0,                                      !- Minute 2
  0;                                      !- Value Until Time 2

OS:Schedule:Day,
  {48fc5eec-1d7d-40e8-91bc-760804c10dde}, !- Handle